Circuit: ** Samlet PD **

Early termination of direct N-R iteration.
Direct Newton iteration failed to find .op point.  (Use ".option noopiter" to skip.)
Starting Gmin stepping
Gmin = 10
Gmin = 1.07374
Gmin = 0.115292
Gmin = 0.0123794
Gmin = 0.00132923
Gmin = 0.000142725
Gmin = 1.5325e-05
Gmin = 1.6455e-06
Gmin = 1.76685e-07
Gmin = 1.89714e-08
Gmin = 2.03704e-09
Gmin = 2.18725e-10
Gmin = 2.34854e-11
Gmin = 2.52173e-12
Gmin = 2.70769e-13
Gmin = 0
Gmin stepping succeeded in finding the operating point.


Date: Tue May 12 09:54:02 2020
Total elapsed time: 0.178 seconds.

tnom = 27
temp = 27
method = modified trap
totiter = 3014
traniter = 2482
tranpoints = 1239
accept = 1196
rejected = 43
matrix size = 135
fillins = 226
solver = Normal
Thread vector: 10.5/9.4[2] 3.3/2.3[2] 4.6/3.3[2] 0.7/2.1[1]  2592/500
Matrix Compiler1: 17.90 KB object code size  4.4/1.7/[1.1]
Matrix Compiler2: 14.82 KB object code size  2.1/2.7/[1.2]

